Circuit: * A:\Facultate\Cursuri\Electronica Analogica\322CA_Olteanu_Alexandru\Circuit.asc

Number of points per decade reduced from 100000 to 7100.
Direct Newton iteration for .op point succeeded.

Date: Sun Jan 23 19:58:11 2022
Total elapsed time: 0.497 seconds.

tnom = 27
temp = 27
method = trap
totiter = 3
traniter = 0
tranpoints = 0
accept = 0
rejected = 0
matrix size = 22
fillins = 24
solver = Normal
Matrix Compiler1:     133 opcodes
Matrix Compiler2: 2.93 KB object code size
