Circuit: * A:\Facultate\Cursuri\Electronica Analogica\322CA_Olteanu_Alexandru\Exercitiul7.asc

Direct Newton iteration failed to find .op point.  (Use ".option noopiter" to skip.)
Starting Gmin stepping
Gmin = 10
Gmin = 1.07374
vernier = 0.5
vernier = 0.25
vernier = 0.125
vernier = 0.0625
Gmin = 1.10559
vernier = 0.03125
vernier = 0.015625
vernier = 0.0078125
Gmin = 1.09061
vernier = 0.00390625
vernier = 0.00195313
Gmin = 1.08424
vernier = 0.00260417
vernier = 0.00130208
Gmin = 1.08089
vernier = 0.00173611
vernier = 0.000868055
vernier = 0.00115741
Gmin = 1.07878
vernier = 0.000578703
vernier = 0.000771604
Gmin = 1.07728
vernier = 0.00102881
vernier = 0.000514403
Gmin = 1.07589
vernier = 0.00068587
vernier = 0.000914493
vernier = 0.000457247
Gmin = 1.07452
vernier = 0.000609662
Gmin = 1.07305
vernier = 0.000812882
vernier = 0.000406441
vernier = 0.000541921
Gmin = 1.07207
vernier = 0.000722562
vernier = 0.000541921
Gmin = 1.07091
vernier = 0.000722562
vernier = 0.000541921
vernier = 0.000722561
vernier = 0.000541921
Gmin = 1.07004
vernier = 0.000722561
vernier = 0.000541921
Gmin = 1.06888
vernier = 0.000722561
vernier = 0.000541921
vernier = 0.000722561
vernier = 0.000541921
Gmin = 1.06801
vernier = 0.000722561
vernier = 0.000541921
vernier = 0.00040644
Gmin = 1.06714
vernier = 0.00054192
vernier = 0.00040644
Gmin = 1.06628
vernier = 0.00054192
vernier = 0.00040644
vernier = 0.00054192
Gmin = 1.06537
vernier = 0.00040644
vernier = 0.00054192
vernier = 0.00040644
Gmin = 1.06476
vernier = 0.00054192
vernier = 0.00040644
Gmin = 1.0639
vernier = 0.00054192
vernier = 0.00040644
vernier = 0.00054192
vernier = 0.00040644
Gmin = 1.06325
vernier = 0.000541919
vernier = 0.00040644
Gmin = 1.06238
vernier = 0.000541919
vernier = 0.000406439
vernier = 0.000541919
vernier = 0.000406439
Gmin = 1.06174
Gmin = 0
Gmin stepping failed

Starting source stepping with srcstepmethod=0
Source Step = 3.0303%
vernier = 0.25
Source Step = 0.0177557%
Starting source stepping with srcstepmethod=1
Source Step = 3.0303%
vernier = 0.25
Source stepping failed

Pseudo Transient succeeded in finding the operating point at 23.1801 s.

Date: Sun Jan 30 12:27:30 2022
Total elapsed time: 3.136 seconds.

tnom = 27
temp = 27
method = modified trap
totiter = 44074
traniter = 20862
tranpoints = 6036
accept = 4475
rejected = 1569
matrix size = 82
fillins = 142
solver = Normal
Thread vector: 18.1/12.7[3] 7.9/4.6[3] 5.4/3.6[3] 0.6/128.0[1]  2592/500
Matrix Compiler1: 17.53 KB object code size  4.3/2.1/[1.4]
Matrix Compiler2: 10.86 KB object code size  1.9/2.4/[1.0]

