Circuit: * A:\Facultate\Cursuri\Electronica Analogica\322CA_Olteanu_Alexandru\Exercitiul4.asc

Direct Newton iteration for .op point succeeded.

Date: Mon Jan 24 11:17:22 2022
Total elapsed time: 0.081 seconds.

tnom = 27
temp = 27
method = modified trap
totiter = 2705
traniter = 2702
tranpoints = 1352
accept = 1303
rejected = 49
matrix size = 22
fillins = 24
solver = Normal
Matrix Compiler1:     128 opcodes  0.6/[0.3]/0.4
Matrix Compiler2: off  [0.2]/0.3/0.4

