Circuit: * A:\Facultate\Cursuri\Electronica Analogica\322CA_Olteanu_Alexandru\Exercitiul6.asc

WARNING: Node U5:N002 is floating.

Direct Newton iteration failed to find .op point.  (Use ".option noopiter" to skip.)
Starting Gmin stepping
Gmin = 10
Gmin = 1.07374
vernier = 0.5
vernier = 0.25
vernier = 0.125
vernier = 0.0625
Gmin = 1.10559
vernier = 0.03125
vernier = 0.015625
vernier = 0.0078125
Gmin = 1.09061
vernier = 0.00390625
vernier = 0.00195313
Gmin = 1.08424
vernier = 0.00260417
vernier = 0.00130208
Gmin = 1.08089
vernier = 0.00173611
vernier = 0.000868055
vernier = 0.00115741
Gmin = 1.07878
vernier = 0.000578703
vernier = 0.000771604
Gmin = 1.07728
vernier = 0.00102881
vernier = 0.000514403
Gmin = 1.07589
vernier = 0.00068587
vernier = 0.000914493
vernier = 0.000457247
Gmin = 1.07452
vernier = 0.000609662
Gmin = 1.07305
vernier = 0.000812882
vernier = 0.000406441
vernier = 0.000541921
Gmin = 1.07207
vernier = 0.000722562
vernier = 0.000541921
Gmin = 1.07091
vernier = 0.000722562
vernier = 0.000541921
vernier = 0.000722561
vernier = 0.000541921
Gmin = 1.07004
vernier = 0.000722561
vernier = 0.000541921
Gmin = 1.06888
vernier = 0.000722561
vernier = 0.000541921
vernier = 0.000722561
vernier = 0.000541921
Gmin = 1.06801
vernier = 0.000722561
vernier = 0.000541921
Gmin = 1.06685
vernier = 0.00040644
vernier = 0.00054192
vernier = 0.00040644
Gmin = 1.06624
vernier = 0.00054192
vernier = 0.00040644
Gmin = 1.06537
vernier = 0.00054192
vernier = 0.00040644
vernier = 0.00054192
vernier = 0.00040644
Gmin = 1.06472
vernier = 0.00054192
vernier = 0.00040644
Gmin = 1.06386
vernier = 0.00054192
vernier = 0.00040644
vernier = 0.00054192
vernier = 0.00040644
Gmin = 1.06321
vernier = 0.000541919
vernier = 0.00040644
Gmin = 1.06235
vernier = 0.000541919
vernier = 0.000406439
vernier = 0.000541919
Gmin = 1.06145
vernier = 0.000406439
Gmin = 0
Gmin stepping failed

Starting source stepping with srcstepmethod=0
Source Step = 3.0303%
Source Step = 33.3333%
Source Step = 63.6364%
Source Step = 93.9394%
Source stepping succeeded in finding the operating point.


Date: Thu Jan 27 15:06:31 2022
Total elapsed time: 2.179 seconds.

tnom = 27
temp = 27
method = modified trap
totiter = 22576
traniter = 5418
tranpoints = 2009
accept = 1563
rejected = 446
matrix size = 86
fillins = 150
solver = Normal
Thread vector: 11.8/8.5[3] 6.5/4.6[3] 4.3/3.3[3] 0.4/0.6[1]  2592/500
Matrix Compiler1: 20.01 KB object code size  3.6/1.8/[1.5]
Matrix Compiler2: 11.81 KB object code size  1.3/1.7/[0.8]

